<?xml version="1.0" encoding="iso-8859-1"?>
<configuration xmlns:xsi="http://www.w3.org/2001/XMLSchema-instance"
 xsi:noNamespaceSchemaLocation="http://sumo.sf.net/xsd/sumoConfiguration.xsd">
    <input>
        <net-file value="double_t.net.xml"/>
        <route-files value="routes.rou.xml"/>
        <additional-files value="e1.add.xml"/>
    </input>
    <time>
        <begin value="0000" />
        <end value="2000" />
    </time>
    <time-to-teleport value="-1"/>
</configuration>