<?xml version="1.0" encoding="iso-8859-1"?>
<configuration xmlns:xsi="http://www.w3.org/2001/XMLSchema-instance"
					 xsi:noNamespaceSchemaLocation="http://sumo.sf.net/xsd/sumoConfiguration.xsd">
    <input>
        <net-file value="double_t.net.xml" />
        <route-files value="double_t.rou.xml" />
        <additional-files value="double_t_e1.add.xml" />
    </input>
    
    <time>
        <begin value="0" />
        <end value="500" />
    </time>
    
    <processing>
		<time-to-teleport value="-1"/>
    </processing>
    
	<gui_only>
		<gui-settings-file value="gui-settings.xml" />
	</gui_only>

    <!--
    <traci_server>
        <remote-port value="8813" />
    </traci_server>
    -->
</configuration>