<additional>
	<e1Detector file="e1output.xml" freq="60" friendlyPos="x" id="e1det_BAve~EB_0" lane="BAve~EB_0" length="53.1" pos="0"/>
	<e1Detector file="e1output.xml" freq="60" friendlyPos="x" id="e1det_BAve~EB_1" lane="BAve~EB_1" length="53.1" pos="0"/>
	<e1Detector file="e1output.xml" freq="60" friendlyPos="x" id="e1det_Pell~WB_0" lane="Pell~WB_0" length="95.85" pos="1"/>
	<e1Detector file="e1output.xml" freq="60" friendlyPos="x" id="e1det_Pell~WB_1" lane="Pell~WB_1" length="95.85" pos="1"/>
	<e1Detector file="e1output.xml" freq="60" friendlyPos="x" id="e1det_RKL~SB_0" lane="RKL~SB_0" length="211.85" pos="1"/>
	<e1Detector file="e1output.xml" freq="60" friendlyPos="x" id="e1det_RKL~SB_1" lane="RKL~SB_1" length="211.85" pos="1"/>
	<e1Detector file="e1output.xml" freq="60" friendlyPos="x" id="e1det_BAve~WB_0" lane="BAve~WB_0" length="53.1" pos="0"/>
	<e1Detector file="e1output.xml" freq="60" friendlyPos="x" id="e1det_BAve~WB_1" lane="BAve~WB_1" length="53.1" pos="0"/>
	<e1Detector file="e1output.xml" freq="60" friendlyPos="x" id="e1det_Best~EB_0" lane="Best~EB_0" length="95.15" pos="1"/>
	<e1Detector file="e1output.xml" freq="60" friendlyPos="x" id="e1det_Best~EB_1" lane="Best~EB_1" length="95.15" pos="1"/>
	<e1Detector file="e1output.xml" freq="60" friendlyPos="x" id="e1det_SteS~SB_0" lane="SteS~SB_0" length="250" pos="1"/>
</additional>
