<edges xmlns:xsi="http://www.w3.org/2001/XMLSchema-instance" xsi:noNamespaceSchemaLocation="http://sumo.sf.net/xsd/edges_file.xsd">
   <edge id="Best~EB" from="T_West" to="J_SS" priority="1" numLanes="2" speed="27.78" />
   <edge id="Best~WB" from="J_SS" to="T_West" priority="2" numLanes="2" speed="27.78" />

   <edge id="BAve~EB" from="J_SS" to="J_RKLN" priority="1" numLanes="2" speed="27.78" />
   <edge id="BAve~WB" from="J_RKLN" to="J_SS" priority="2" numLanes="2" speed="27.78" />

   <edge id="Pell~EB" from="J_RKLN" to="T_East" priority="1" numLanes="2" speed="27.78" />
   <edge id="Pell~WB" from="T_East" to="J_RKLN" priority="2" numLanes="2" speed="27.78" />

   <edge id="SteS~SB" from="T_North_1" to="J_SS" priority="2" numLanes="1" speed="13.89" />
   <edge id="SteS~NB" from="J_SS" to="T_North_1" priority="1" numLanes="1" speed="13.89" />

   <edge id="RKL~SB" from="T_North_2" to="J_RKLN" priority="2" numLanes="2" speed="27.78" />
   <edge id="RKL~NB" from="J_RKLN" to="T_North_2" priority="1" numLanes="2" speed="27.78" />
</edges>
