<nodes xmlns:xsi="http://www.w3.org/2001/XMLSchema-instance" xsi:noNamespaceSchemaLocation="http://sumo.sf.net/xsd/nodes_file.xsd">
   <node id="J_SS" x="0.0" y="0.0" type="priority"/>

   <node id="T_West" x="-100.0" y="0.0" type="priority"/>
   <node id="J_RKLN" x="+66.0" y="0.0" type="priority"/>
   <node id="T_North_1" x="0.0" y="+320.0" type="priority"/>

</nodes>
