<?xml version="1.0" encoding="UTF-8"?>

<!-- generated on 02/04/12 11:32:55 by SUMO netconvert Version 0.14.0
<?xml version="1.0" encoding="UTF-8"?>

<configuration xmlns:xsi="http://www.w3.org/2001/XMLSchema-instance" xsi:noNamespaceSchemaLocation="http://sumo.sf.net/xsd/netconvertConfiguration.xsd">

    <input>
        <osm-files value="double_t.osm"/>
    </input>

    <output>
        <output-file value="double_t.net.xml"/>
    </output>

    <projection>
        <proj.utm value="true"/>
    </projection>

</configuration>
-->

<net version="0.13" xmlns:xsi="http://www.w3.org/2001/XMLSchema-instance" xsi:noNamespaceSchemaLocation="http://sumo.sf.net/xsd/net_file.xsd">

    <location netOffset="-640202.20,-5701354.66" convBoundary="0.00,0.00,459.65,370.51" origBoundary="-0.982420,51.445890,-0.975759,51.449225" projParameter="+proj=utm +zone=30 +ellps=WGS84 +datum=WGS84 +units=m +no_defs"/>

    <edge id=":14022045_0" function="internal">
        <lane id=":14022045_0_0" index="0" speed="27.78" length="17.96" shape="386.71,220.63 381.39,220.86 377.74,221.02 374.10,221.15 368.77,221.29"/>
    </edge>
    <edge id=":14022045_1" function="internal">
        <lane id=":14022045_1_0" index="0" speed="27.78" length="17.90" shape="386.58,217.33 381.27,217.56 377.63,217.72 374.00,217.85 368.69,217.99"/>
    </edge>
    <edge id=":14022045_2" function="internal">
        <lane id=":14022045_2_0" index="0" speed="27.78" length="10.42" shape="386.58,217.33 380.40,216.76 376.90,214.41"/>
    </edge>
    <edge id=":14022045_11" function="internal">
        <lane id=":14022045_11_0" index="0" speed="27.78" length="10.42" shape="376.90,214.41 376.09,210.27 377.96,204.35"/>
    </edge>
    <edge id=":14022045_3" function="internal">
        <lane id=":14022045_3_0" index="0" speed="27.78" length="2.41" shape="386.58,217.33 385.30,216.56 384.86,215.75"/>
    </edge>
    <edge id=":14022045_12" function="internal">
        <lane id=":14022045_12_0" index="0" speed="27.78" length="2.41" shape="384.86,215.75 385.24,214.91 386.44,214.04"/>
    </edge>
    <edge id=":14022045_4" function="internal">
        <lane id=":14022045_4_0" index="0" speed="27.78" length="4.15" shape="382.67,209.82 382.71,210.29 383.32,210.60 384.52,210.75 386.30,210.74"/>
    </edge>
    <edge id=":14022045_5" function="internal">
        <lane id=":14022045_5_0" index="0" speed="27.78" length="3.06" shape="379.67,208.45 378.16,211.11"/>
    </edge>
    <edge id=":14022045_13" function="internal">
        <lane id=":14022045_13_0" index="0" speed="27.78" length="12.24" shape="378.16,211.11 377.32,212.56 374.71,215.52 371.83,217.33 368.69,217.99"/>
    </edge>
    <edge id=":14022045_6" function="internal">
        <lane id=":14022045_6_0" index="0" speed="27.78" length="3.25" shape="379.67,208.45 377.70,208.07 376.76,207.26"/>
    </edge>
    <edge id=":14022045_14" function="internal">
        <lane id=":14022045_14_0" index="0" speed="27.78" length="3.25" shape="376.76,207.26 376.85,206.02 377.96,204.35"/>
    </edge>
    <edge id=":14022045_7" function="internal">
        <lane id=":14022045_7_0" index="0" speed="27.78" length="9.22" shape="371.15,211.33 371.34,210.80 372.04,209.23 373.25,206.61 374.97,202.94"/>
    </edge>
    <edge id=":14022045_8" function="internal">
        <lane id=":14022045_8_0" index="0" speed="27.78" length="15.16" shape="371.15,211.33 375.65,211.20 378.73,211.08 381.80,210.94 386.30,210.74"/>
    </edge>
    <edge id=":14022045_9" function="internal">
        <lane id=":14022045_9_0" index="0" speed="27.78" length="17.84" shape="368.61,214.69 373.90,214.55 377.52,214.42 381.14,214.27 386.44,214.04"/>
    </edge>
    <edge id=":14022045_10" function="internal">
        <lane id=":14022045_10_0" index="0" speed="27.78" length="2.41" shape="368.61,214.69 369.86,215.48 370.30,216.30"/>
    </edge>
    <edge id=":14022045_15" function="internal">
        <lane id=":14022045_15_0" index="0" speed="27.78" length="2.41" shape="370.30,216.30 369.90,217.13 368.69,217.99"/>
    </edge>
    <edge id=":14022047_0" function="internal">
        <lane id=":14022047_0_0" index="0" speed="27.78" length="9.43" shape="295.92,221.30 286.49,221.32"/>
    </edge>
    <edge id=":14022047_1" function="internal">
        <lane id=":14022047_1_0" index="0" speed="27.78" length="9.45" shape="295.93,218.00 286.48,218.02"/>
    </edge>
    <edge id=":14022047_2" function="internal">
        <lane id=":14022047_2_0" index="0" speed="20.83" length="6.44" shape="295.93,218.00 293.18,217.39 291.19,215.56 290.85,214.71"/>
    </edge>
    <edge id=":14022047_11" function="internal">
        <lane id=":14022047_11_0" index="0" speed="20.83" length="6.62" shape="290.85,214.71 289.97,212.53 289.51,208.28"/>
    </edge>
    <edge id=":14022047_3" function="internal">
        <lane id=":14022047_3_0" index="0" speed="27.78" length="2.41" shape="295.93,218.00 294.69,217.17 294.28,216.34"/>
    </edge>
    <edge id=":14022047_12" function="internal">
        <lane id=":14022047_12_0" index="0" speed="27.78" length="2.41" shape="294.28,216.34 294.69,215.52 295.93,214.70"/>
    </edge>
    <edge id=":14022047_4" function="internal">
        <lane id=":14022047_4_0" index="0" speed="20.83" length="5.05" shape="292.81,208.23 293.03,209.61 293.62,210.60 294.59,211.20 295.93,211.40"/>
    </edge>
    <edge id=":14022047_5" function="internal">
        <lane id=":14022047_5_0" index="0" speed="20.83" length="3.18" shape="292.81,208.23 292.56,211.40"/>
    </edge>
    <edge id=":14022047_13" function="internal">
        <lane id=":14022047_13_0" index="0" speed="20.83" length="9.98" shape="292.56,211.40 292.47,212.50 291.31,215.55 289.31,217.39 286.48,218.02"/>
    </edge>
    <edge id=":14022047_6" function="internal">
        <lane id=":14022047_6_0" index="0" speed="13.89" length="2.41" shape="292.81,208.23 292.01,209.48 291.19,209.91"/>
    </edge>
    <edge id=":14022047_14" function="internal">
        <lane id=":14022047_14_0" index="0" speed="13.89" length="2.41" shape="291.19,209.91 290.36,209.51 289.51,208.28"/>
    </edge>
    <edge id=":14022047_7" function="internal">
        <lane id=":14022047_7_0" index="0" speed="20.83" length="5.01" shape="286.44,211.42 287.80,211.21 288.77,210.62 289.34,209.65 289.51,208.28"/>
    </edge>
    <edge id=":14022047_8" function="internal">
        <lane id=":14022047_8_0" index="0" speed="27.78" length="9.49" shape="286.44,211.42 295.93,211.40"/>
    </edge>
    <edge id=":14022047_9" function="internal">
        <lane id=":14022047_9_0" index="0" speed="27.78" length="9.47" shape="286.46,214.72 295.93,214.70"/>
    </edge>
    <edge id=":14022047_10" function="internal">
        <lane id=":14022047_10_0" index="0" speed="27.78" length="2.41" shape="286.46,214.72 287.70,215.53 288.12,216.36"/>
    </edge>
    <edge id=":14022047_15" function="internal">
        <lane id=":14022047_15_0" index="0" speed="27.78" length="2.41" shape="288.12,216.36 287.71,217.18 286.48,218.02"/>
    </edge>
    <edge id=":291094815_0" function="internal">
        <lane id=":291094815_0_0" index="0" speed="13.89" length="4.82" shape="293.09,137.73 293.99,136.55 294.84,136.19 295.64,136.66 296.38,137.94"/>
    </edge>
    <edge id=":318646525_0" function="internal">
        <lane id=":318646525_0_0" index="0" speed="13.89" length="4.82" shape="-0.73,93.19 -1.47,91.90 -1.48,90.98 -0.75,90.42 0.73,90.23"/>
    </edge>
    <edge id=":318646530_0" function="internal">
        <lane id=":318646530_0_0" index="0" speed="13.89" length="5.51" shape="289.45,204.38 289.20,203.09 288.50,202.10 287.36,201.39 285.77,200.97"/>
    </edge>
    <edge id=":318646530_1" function="internal">
        <lane id=":318646530_1_0" index="0" speed="13.89" length="9.44" shape="289.45,204.38 289.66,194.94"/>
    </edge>
    <edge id=":318646530_2" function="internal">
        <lane id=":318646530_2_0" index="0" speed="13.89" length="2.41" shape="289.45,204.38 290.25,203.13 291.07,202.70"/>
    </edge>
    <edge id=":318646530_9" function="internal">
        <lane id=":318646530_9_0" index="0" speed="13.89" length="2.41" shape="291.07,202.70 291.90,203.10 292.75,204.32"/>
    </edge>
    <edge id=":318646530_3" function="internal">
        <lane id=":318646530_3_0" index="0" speed="13.89" length="9.20" shape="292.95,195.12 292.75,204.32"/>
    </edge>
    <edge id=":318646530_4" function="internal">
        <lane id=":318646530_4_0" index="0" speed="13.89" length="6.98" shape="292.95,195.12 292.36,198.07 290.97,200.02 289.53,200.66"/>
    </edge>
    <edge id=":318646530_10" function="internal">
        <lane id=":318646530_10_0" index="0" speed="13.89" length="3.84" shape="289.53,200.66 288.77,200.99 285.77,200.97"/>
    </edge>
    <edge id=":318646530_5" function="internal">
        <lane id=":318646530_5_0" index="0" speed="13.89" length="2.41" shape="292.95,195.12 292.06,196.31 291.22,196.68"/>
    </edge>
    <edge id=":318646530_11" function="internal">
        <lane id=":318646530_11_0" index="0" speed="13.89" length="2.41" shape="291.22,196.68 290.42,196.22 289.66,194.94"/>
    </edge>
    <edge id=":318646530_6" function="internal">
        <lane id=":318646530_6_0" index="0" speed="13.89" length="5.12" shape="286.26,197.71 287.68,197.72 288.72,197.26 289.38,196.33 289.66,194.94"/>
    </edge>
    <edge id=":318646530_7" function="internal">
        <lane id=":318646530_7_0" index="0" speed="13.89" length="10.21" shape="286.26,197.71 289.06,198.49 291.08,199.85 292.31,201.79 292.75,204.32"/>
    </edge>
    <edge id=":318646530_8" function="internal">
        <lane id=":318646530_8_0" index="0" speed="13.89" length="4.82" shape="286.26,197.71 287.36,198.71 287.64,199.59 287.11,200.34 285.77,200.97"/>
    </edge>
    <edge id=":326129252_0" function="internal">
        <lane id=":326129252_0_0" index="0" speed="27.78" length="4.82" shape="268.77,218.10 267.52,217.29 267.11,216.46 267.52,215.64 268.75,214.80"/>
    </edge>
    <edge id=":370433488_0" function="internal">
        <lane id=":370433488_0_0" index="0" speed="27.78" length="0.87" shape="384.31,206.39 383.92,207.17"/>
    </edge>
    <edge id=":370433488_1" function="internal">
        <lane id=":370433488_1_0" index="0" speed="27.78" length="0.87" shape="381.33,204.98 380.94,205.76"/>
    </edge>
    <edge id=":370433488_2" function="internal">
        <lane id=":370433488_2_0" index="0" speed="27.78" length="10.97" shape="381.33,204.98 379.45,207.06 377.11,207.29 374.45,207.28 371.60,208.65"/>
    </edge>
    <edge id=":370433488_3" function="internal">
        <lane id=":370433488_3_0" index="0" speed="27.78" length="2.41" shape="381.33,204.98 380.05,205.75 379.13,205.77"/>
    </edge>
    <edge id=":370433488_8" function="internal">
        <lane id=":370433488_8_0" index="0" speed="27.78" length="2.41" shape="379.13,205.77 378.56,205.05 378.34,203.58"/>
    </edge>
    <edge id=":370433488_4" function="internal">
        <lane id=":370433488_4_0" index="0" speed="27.78" length="9.08" shape="375.34,202.16 373.80,211.11"/>
    </edge>
    <edge id=":370433488_5" function="internal">
        <lane id=":370433488_5_0" index="0" speed="27.78" length="0.10" shape="375.34,202.16 375.36,202.17"/>
    </edge>
    <edge id=":370433488_6" function="internal">
        <lane id=":370433488_6_0" index="0" speed="27.78" length="0.10" shape="378.32,203.57 378.34,203.58"/>
    </edge>
    <edge id=":370433488_7" function="internal">
        <lane id=":370433488_7_0" index="0" speed="27.78" length="2.49" shape="378.32,203.57 379.80,203.13 380.73,203.35"/>
    </edge>
    <edge id=":370433488_9" function="internal">
        <lane id=":370433488_9_0" index="0" speed="27.78" length="2.49" shape="380.73,203.35 381.11,204.23 380.94,205.76"/>
    </edge>
    <edge id=":370433491_0" function="internal">
        <lane id=":370433491_0_0" index="0" speed="27.78" length="5.12" shape="366.93,221.33 361.80,221.36"/>
    </edge>
    <edge id=":370433491_1" function="internal">
        <lane id=":370433491_1_0" index="0" speed="27.78" length="5.04" shape="366.85,218.03 361.81,218.06"/>
    </edge>
    <edge id=":370433491_2" function="internal">
        <lane id=":370433491_2_0" index="0" speed="27.78" length="2.41" shape="366.85,218.03 365.59,217.24 365.16,216.42"/>
    </edge>
    <edge id=":370433491_8" function="internal">
        <lane id=":370433491_8_0" index="0" speed="27.78" length="2.41" shape="365.16,216.42 365.55,215.59 366.77,214.73"/>
    </edge>
    <edge id=":370433491_3" function="internal">
        <lane id=":370433491_3_0" index="0" speed="27.78" length="3.86" shape="372.22,212.52 368.53,211.39"/>
    </edge>
    <edge id=":370433491_4" function="internal">
        <lane id=":370433491_4_0" index="0" speed="27.78" length="12.13" shape="370.02,210.06 367.74,212.93 366.46,215.50 364.91,217.35 361.81,218.06"/>
    </edge>
    <edge id=":370433491_5" function="internal">
        <lane id=":370433491_5_0" index="0" speed="27.78" length="6.71" shape="361.81,211.46 368.53,211.39"/>
    </edge>
    <edge id=":370433491_6" function="internal">
        <lane id=":370433491_6_0" index="0" speed="27.78" length="4.96" shape="361.81,214.76 366.77,214.73"/>
    </edge>
    <edge id=":370433491_7" function="internal">
        <lane id=":370433491_7_0" index="0" speed="27.78" length="2.41" shape="361.81,214.76 363.05,215.59 363.46,216.42"/>
    </edge>
    <edge id=":370433491_9" function="internal">
        <lane id=":370433491_9_0" index="0" speed="27.78" length="2.41" shape="363.46,216.42 363.05,217.24 361.81,218.06"/>
    </edge>
    <edge id=":428246568_0" function="internal">
        <lane id=":428246568_0_0" index="0" speed="27.78" length="4.82" shape="450.02,-0.07 450.90,-1.27 451.74,-1.65 452.55,-1.20 453.32,0.07"/>
    </edge>
    <edge id=":428246573_0" function="internal">
        <lane id=":428246573_0_0" index="0" speed="27.78" length="4.82" shape="460.13,220.12 461.07,221.27 461.22,222.18 460.59,222.85 459.16,223.27"/>
    </edge>
    <edge id=":588998589_0" function="internal">
        <lane id=":588998589_0_0" index="0" speed="18.06" length="9.78" shape="413.10,227.44 414.63,223.91 415.07,221.42 414.41,219.96 412.67,219.54"/>
    </edge>
    <edge id=":588998589_1" function="internal">
        <lane id=":588998589_1_0" index="0" speed="18.06" length="13.96" shape="413.10,227.44 415.82,221.88 417.46,217.89 418.03,215.48 417.52,214.65"/>
    </edge>
    <edge id=":588998589_2" function="internal">
        <lane id=":588998589_2_0" index="0" speed="8.33" length="5.03" shape="413.10,227.44 412.81,225.92 413.13,225.01 414.05,224.71 415.57,225.04"/>
    </edge>
    <edge id=":588998589_3" function="internal">
        <lane id=":588998589_3_0" index="0" speed="18.06" length="6.58" shape="417.28,221.24 415.22,221.41 414.25,222.10 414.37,223.31 415.57,225.04"/>
    </edge>
    <edge id=":588998589_4" function="internal">
        <lane id=":588998589_4_0" index="0" speed="27.78" length="4.92" shape="417.28,221.24 412.67,219.54"/>
    </edge>
    <edge id=":588998589_5" function="internal">
        <lane id=":588998589_5_0" index="0" speed="27.78" length="5.16" shape="417.40,217.95 412.53,216.24"/>
    </edge>
    <edge id=":588998589_6" function="internal">
        <lane id=":588998589_6_0" index="0" speed="27.78" length="2.41" shape="417.40,217.95 416.20,217.08 415.81,216.24"/>
    </edge>
    <edge id=":588998589_11" function="internal">
        <lane id=":588998589_11_0" index="0" speed="27.78" length="2.41" shape="415.81,216.24 416.26,215.43 417.52,214.65"/>
    </edge>
    <edge id=":588998589_7" function="internal">
        <lane id=":588998589_7_0" index="0" speed="27.78" length="5.65" shape="412.25,209.64 417.64,211.35"/>
    </edge>
    <edge id=":588998589_8" function="internal">
        <lane id=":588998589_8_0" index="0" speed="27.78" length="5.41" shape="412.39,212.94 417.52,214.65"/>
    </edge>
    <edge id=":588998589_9" function="internal">
        <lane id=":588998589_9_0" index="0" speed="18.06" length="15.74" shape="412.39,212.94 409.90,213.81 409.60,216.12 411.49,219.86 415.57,225.04"/>
    </edge>
    <edge id=":588998589_10" function="internal">
        <lane id=":588998589_10_0" index="0" speed="27.78" length="2.41" shape="412.39,212.94 413.66,213.71 414.11,214.52"/>
    </edge>
    <edge id=":588998589_12" function="internal">
        <lane id=":588998589_12_0" index="0" speed="27.78" length="2.41" shape="414.11,214.52 413.73,215.36 412.53,216.24"/>
    </edge>
    <edge id=":588998616_0" function="internal">
        <lane id=":588998616_0_0" index="0" speed="8.33" length="4.82" shape="432.27,370.50 431.46,371.74 430.63,372.16 429.81,371.75 428.97,370.52"/>
    </edge>

    <edge id="-116021461" from="14022047" to="326129252" priority="9" type="highway.primary">
        <lane id="-116021461_0" index="0" speed="27.78" length="17.71" shape="286.49,221.32 268.78,221.40"/>
        <lane id="-116021461_1" index="1" speed="27.78" length="17.71" shape="286.48,218.02 268.77,218.10"/>
    </edge>
    <edge id="-26556482#0" from="318646530" to="14022047" priority="4" type="highway.residential">
        <lane id="-26556482#0_0" index="0" speed="13.89" length="3.91" shape="292.75,204.32 292.81,208.23"/>
    </edge>
    <edge id="-26556482#1" from="291094815" to="318646530" priority="4" type="highway.residential" shape="294.74,137.84 292.75,168.66 291.03,200.10">
        <lane id="-26556482#1_0" index="0" speed="13.89" length="57.28" shape="296.38,137.94 294.39,168.77 292.95,195.12"/>
    </edge>
    <edge id="-28978683" from="318646530" to="318646525" priority="4" type="highway.residential" shape="291.03,200.10 272.34,197.28 195.14,167.44 130.84,148.57 86.71,134.19 0.00,91.71">
        <lane id="-28978683_0" index="0" speed="13.89" length="307.08" shape="285.77,200.97 271.91,198.88 194.54,168.98 130.37,150.16 86.20,135.76 -0.73,93.19"/>
    </edge>
    <edge id="-36268602" from="370433491" to="14022047" priority="9" type="highway.primary">
        <lane id="-36268602_0" index="0" speed="27.78" length="65.88" shape="361.80,221.36 295.92,221.30"/>
        <lane id="-36268602_1" index="1" speed="27.78" length="65.88" shape="361.81,218.06 295.93,218.00"/>
    </edge>
    <edge id="-36838845#0" from="370433488" to="428246568" priority="7" type="highway.secondary" shape="380.44,202.96 405.39,148.04 413.72,124.77 423.41,97.70 441.33,56.19 445.74,38.87 450.90,18.93 451.67,0.00">
        <lane id="-36838845#0_0" index="0" speed="27.78" length="216.55" shape="375.36,202.17 400.88,145.99 409.06,123.10 418.75,96.03 436.79,54.23 440.94,37.65 445.98,18.20 446.73,-0.20"/>
        <lane id="-36838845#0_1" index="1" speed="27.78" length="216.55" shape="378.34,203.58 403.88,147.36 412.17,124.21 421.86,97.15 439.82,55.54 444.14,38.47 449.26,18.69 450.02,-0.07"/>
    </edge>
    <edge id="-36838845#1" from="14022045" to="370433488" priority="7" type="highway.secondary">
        <lane id="-36838845#1_0" index="0" speed="27.78" length="0.87" shape="374.97,202.94 375.34,202.16"/>
        <lane id="-36838845#1_1" index="1" speed="27.78" length="0.87" shape="377.96,204.35 378.32,203.57"/>
    </edge>
    <edge id="-46194782" from="588998589" to="588998616" priority="1" type="highway.footway" shape="393.00,215.41 412.09,223.57 415.15,227.06 407.98,241.06 416.23,248.53 452.95,256.48 450.76,267.64 440.97,302.61 430.41,344.65 430.62,370.51">
        <lane id="-46194782_0" index="0" allow="pedestrian" speed="8.33" length="184.30" shape="415.57,225.04 417.13,226.82 410.02,240.69 417.01,247.01 454.88,255.21 452.38,267.96 442.56,303.06 432.06,344.85 432.27,370.50"/>
    </edge>
    <edge id="-94709513#0" from="588998589" to="14022045" priority="9" type="highway.primary">
        <lane id="-94709513#0_0" index="0" speed="27.78" length="25.98" shape="412.67,219.54 386.71,220.63"/>
        <lane id="-94709513#0_1" index="1" speed="27.78" length="25.98" shape="412.53,216.24 386.58,217.33"/>
    </edge>
    <edge id="-94709513#1" from="428246573" to="588998589" priority="9" type="highway.primary" shape="459.65,221.69 447.18,217.85 435.23,216.95 393.00,215.41">
        <lane id="-94709513#1_0" index="0" speed="27.78" length="41.94" shape="458.19,226.42 446.25,222.75 434.85,221.88 417.28,221.24"/>
        <lane id="-94709513#1_1" index="1" speed="27.78" length="41.94" shape="459.16,223.27 446.87,219.49 435.10,218.59 417.40,217.95"/>
    </edge>
    <edge id="-94709514" from="14022045" to="370433491" priority="9" type="highway.primary">
        <lane id="-94709514_0" index="0" speed="27.78" length="1.84" shape="368.77,221.29 366.93,221.33"/>
        <lane id="-94709514_1" index="1" speed="27.78" length="1.84" shape="368.69,217.99 366.85,218.03"/>
    </edge>
    <edge id="116021461" from="326129252" to="14022047" priority="9" type="highway.primary">
        <lane id="116021461_0" index="0" speed="27.78" length="17.71" shape="268.73,211.50 286.44,211.42"/>
        <lane id="116021461_1" index="1" speed="27.78" length="17.71" shape="268.75,214.80 286.46,214.72"/>
    </edge>
    <edge id="26556482#0" from="14022047" to="318646530" priority="4" type="highway.residential">
        <lane id="26556482#0_0" index="0" speed="13.89" length="3.91" shape="289.51,208.28 289.45,204.38"/>
    </edge>
    <edge id="26556482#1" from="318646530" to="291094815" priority="4" type="highway.residential" shape="291.03,200.10 292.75,168.66 294.74,137.84">
        <lane id="26556482#1_0" index="0" speed="13.89" length="57.31" shape="289.66,194.94 291.10,168.57 293.09,137.73"/>
    </edge>
    <edge id="28978683" from="318646525" to="318646530" priority="4" type="highway.residential" shape="0.00,91.71 86.71,134.19 130.84,148.57 195.14,167.44 272.34,197.28 291.03,200.10">
        <lane id="28978683_0" index="0" speed="13.89" length="306.07" shape="0.73,90.23 87.44,132.71 131.35,147.00 195.60,165.86 272.77,195.67 286.26,197.71"/>
    </edge>
    <edge id="32889313" from="370433488" to="370433491" priority="7" type="highway.secondary" spreadType="center">
        <lane id="32889313_0" index="0" speed="27.78" length="2.12" shape="373.80,211.11 372.22,212.52"/>
        <lane id="32889313_1" index="1" speed="27.78" length="2.12" shape="371.60,208.65 370.02,210.06"/>
    </edge>
    <edge id="36268602" from="14022047" to="370433491" priority="9" type="highway.primary">
        <lane id="36268602_0" index="0" speed="27.78" length="65.88" shape="295.93,211.40 361.81,211.46"/>
        <lane id="36268602_1" index="1" speed="27.78" length="65.88" shape="295.93,214.70 361.81,214.76"/>
    </edge>
    <edge id="36838845#0" from="428246568" to="370433488" priority="7" type="highway.secondary" shape="451.67,0.00 450.90,18.93 445.74,38.87 441.33,56.19 423.41,97.70 413.72,124.77 405.39,148.04 380.44,202.96">
        <lane id="36838845#0_0" index="0" speed="27.78" length="219.19" shape="456.62,0.20 455.82,19.66 450.53,40.11 446.13,57.41 427.96,99.67 418.38,126.44 410.05,149.71 384.31,206.39"/>
        <lane id="36838845#0_1" index="1" speed="27.78" length="219.19" shape="453.32,0.07 452.54,19.17 447.34,39.29 442.93,56.60 424.93,98.36 415.27,125.32 406.94,148.60 381.33,204.98"/>
    </edge>
    <edge id="36838845#1" from="370433488" to="14022045" priority="7" type="highway.secondary">
        <lane id="36838845#1_0" index="0" speed="27.78" length="2.95" shape="383.92,207.17 382.67,209.82"/>
        <lane id="36838845#1_1" index="1" speed="27.78" length="2.95" shape="380.94,205.76 379.67,208.45"/>
    </edge>
    <edge id="46194782" from="588998616" to="588998589" priority="1" type="highway.footway" shape="430.62,370.51 430.41,344.65 440.97,302.61 450.76,267.64 452.95,256.48 416.23,248.53 407.98,241.06 415.15,227.06 412.09,223.57 393.00,215.41">
        <lane id="46194782_0" index="0" allow="pedestrian" speed="8.33" length="180.56" shape="428.97,370.52 428.76,344.46 439.37,302.21 449.17,267.20 451.02,257.75 415.45,250.04 405.93,241.44 413.10,227.44"/>
    </edge>
    <edge id="94709513#0" from="14022045" to="588998589" priority="9" type="highway.primary">
        <lane id="94709513#0_0" index="0" speed="27.78" length="25.98" shape="386.30,210.74 412.25,209.64"/>
        <lane id="94709513#0_1" index="1" speed="27.78" length="25.98" shape="386.44,214.04 412.39,212.94"/>
    </edge>
    <edge id="94709513#1" from="588998589" to="428246573" priority="9" type="highway.primary" shape="393.00,215.41 435.23,216.95 447.18,217.85 459.65,221.69">
        <lane id="94709513#1_0" index="0" speed="27.78" length="43.68" shape="417.64,211.35 435.41,212.00 448.11,212.96 461.10,216.96"/>
        <lane id="94709513#1_1" index="1" speed="27.78" length="43.68" shape="417.52,214.65 435.29,215.30 447.49,216.22 460.13,220.12"/>
    </edge>
    <edge id="94709514" from="370433491" to="14022045" priority="9" type="highway.primary">
        <lane id="94709514_0" index="0" speed="27.78" length="2.23" shape="368.53,211.39 371.15,211.33"/>
        <lane id="94709514_1" index="1" speed="27.78" length="2.23" shape="366.77,214.73 368.61,214.69"/>
    </edge>

    <tlLogic id="14022045" type="static" programID="0" offset="0">
        <phase duration="31" state="GGggrrrGGGg"/>
        <phase duration="9" state="yyggrrryyyg"/>
        <phase duration="6" state="rrGGrrrrrrG"/>
        <phase duration="9" state="rryyrrrrrry"/>
        <phase duration="31" state="rrrrGGgGrrr"/>
        <phase duration="9" state="rrrryyyyrrr"/>
    </tlLogic>
    <tlLogic id="14022047" type="static" programID="0" offset="0">
        <phase duration="31" state="GGggrrrGGGg"/>
        <phase duration="9" state="yyggrrryyyg"/>
        <phase duration="6" state="rrGGrrrrrrG"/>
        <phase duration="9" state="rryyrrrrrry"/>
        <phase duration="31" state="rrrrGGgGrrr"/>
        <phase duration="9" state="rrrryyyyrrr"/>
    </tlLogic>

    <junction id="14022045" type="traffic_light" x="374.19" y="216.21" incLanes="-94709513#0_0 -94709513#0_1 36838845#1_0 36838845#1_1 94709514_0 94709514_1" intLanes=":14022045_0_0 :14022045_1_0 :14022045_11_0 :14022045_12_0 :14022045_4_0 :14022045_13_0 :14022045_14_0 :14022045_7_0 :14022045_8_0 :14022045_9_0 :14022045_15_0" shape="386.78,222.23 386.23,209.14 385.37,207.85 373.52,202.26 368.49,209.79 368.81,222.89">
        <request index="0" response="00000000000" foes="10000100000" cont="0"/>
        <request index="1" response="00000000000" foes="10000100000" cont="0"/>
        <request index="2" response="01110000000" foes="01111100000" cont="1"/>
        <request index="3" response="01100010000" foes="01100010000" cont="1"/>
        <request index="4" response="01100000000" foes="01100001000" cont="0"/>
        <request index="5" response="01100000111" foes="11100000111" cont="1"/>
        <request index="6" response="00010000100" foes="00010000100" cont="1"/>
        <request index="7" response="00000000000" foes="00001000100" cont="0"/>
        <request index="8" response="00000000000" foes="00000111100" cont="0"/>
        <request index="9" response="00000000000" foes="00000111100" cont="0"/>
        <request index="10" response="00000100011" foes="00000100011" cont="1"/>
    </junction>
    <junction id="14022047" type="traffic_light" x="291.29" y="216.34" incLanes="-36268602_0 -36268602_1 -26556482#0_0 116021461_0 116021461_1" intLanes=":14022047_0_0 :14022047_1_0 :14022047_11_0 :14022047_12_0 :14022047_4_0 :14022047_13_0 :14022047_14_0 :14022047_7_0 :14022047_8_0 :14022047_9_0 :14022047_15_0" shape="295.92,222.90 295.94,209.80 294.41,208.20 287.91,208.31 286.44,209.82 286.50,222.92">
        <request index="0" response="00000000000" foes="10000100000" cont="0"/>
        <request index="1" response="00000000000" foes="10000100000" cont="0"/>
        <request index="2" response="01110000000" foes="01111100000" cont="1"/>
        <request index="3" response="01100010000" foes="01100010000" cont="1"/>
        <request index="4" response="01100000000" foes="01100001000" cont="0"/>
        <request index="5" response="01100000111" foes="11100000111" cont="1"/>
        <request index="6" response="00010000100" foes="00010000100" cont="1"/>
        <request index="7" response="00000000000" foes="00001000100" cont="0"/>
        <request index="8" response="00000000000" foes="00000111100" cont="0"/>
        <request index="9" response="00000000000" foes="00000111100" cont="0"/>
        <request index="10" response="00000100011" foes="00000100011" cont="1"/>
    </junction>
    <junction id="291094815" type="priority" x="294.74" y="137.84" incLanes="26556482#1_0" intLanes=":291094815_0_0" shape="294.79,137.84 297.98,138.05 291.49,137.63 294.69,137.84">
        <request index="0" response="0" foes="0" cont="0"/>
    </junction>
    <junction id="318646525" type="priority" x="0.00" y="91.71" incLanes="-28978683_0" intLanes=":318646525_0_0" shape="0.02,91.66 1.43,88.79 -1.43,94.63 -0.02,91.75">
        <request index="0" response="0" foes="0" cont="0"/>
    </junction>
    <junction id="318646530" type="priority" x="291.03" y="200.10" incLanes="26556482#0_0 -26556482#1_0 28978683_0" intLanes=":318646530_0_0 :318646530_1_0 :318646530_9_0 :318646530_3_0 :318646530_10_0 :318646530_11_0 :318646530_6_0 :318646530_7_0 :318646530_8_0" shape="287.85,204.40 294.35,204.30 294.55,195.21 288.06,194.85 286.50,196.13 285.53,202.56">
        <request index="0" response="000000000" foes="100010000" cont="0"/>
        <request index="1" response="000000000" foes="011110000" cont="0"/>
        <request index="2" response="010001000" foes="010001000" cont="1"/>
        <request index="3" response="000000000" foes="010000100" cont="0"/>
        <request index="4" response="000000011" foes="110000011" cont="1"/>
        <request index="5" response="001000010" foes="001000010" cont="1"/>
        <request index="6" response="000000010" foes="000100010" cont="0"/>
        <request index="7" response="000011010" foes="000011110" cont="0"/>
        <request index="8" response="000010001" foes="000010001" cont="0"/>
    </junction>