<configuration>
	<n v="double_t.net.xml"/>
</configuration>
