<routes>
    <vType id="typeWE" accel="0.8" decel="4.5" sigma="0.5" length="5" minGap="2.5" maxSpeed="16.67" guiShape="passenger"/>
    <vType id="typeNS" accel="0.8" decel="4.5" sigma="0.5" length="17" minGap="3" maxSpeed="25" guiShape="bus"/>

    <route id="right" edges="51o 1i 2o 52i" />
    <route id="left" edges="52o 2i 1o 51i" />
    <route id="down" edges="54o 4i 3o 53i" />
    <vehicle id="0" type="typeWE" route="left" depart="4" />
    <vehicle id="1" type="typeWE" route="left" depart="6" />
    <vehicle id="2" type="typeWE" route="right" depart="11" />
    <vehicle id="3" type="typeWE" route="right" depart="12" />
    <vehicle id="4" type="typeNS" route="down" depart="21" color="1,0,0"/>
    <vehicle id="5" type="typeWE" route="left" depart="25" />
    <vehicle id="6" type="typeWE" route="left" depart="49" />
    <vehicle id="7" type="typeWE" route="left" depart="60" />
    <vehicle id="8" type="typeWE" route="right" depart="66" />
    <vehicle id="9" type="typeNS" route="down" depart="71" color="1,0,0"/>
    <vehicle id="10" type="typeWE" route="right" depart="73" />
    <vehicle id="11" type="typeWE" route="right" depart="74" />
    <vehicle id="12" type="typeWE" route="left" depart="84" />
    <vehicle id="13" type="typeWE" route="right" depart="89" />
    <vehicle id="14" type="typeWE" route="left" depart="96" />
    <vehicle id="15" type="typeWE" route="left" depart="107" />
    <vehicle id="16" type="typeWE" route="right" depart="109" />
    <vehicle id="17" type="typeWE" route="left" depart="110" />
    <vehicle id="18" type="typeWE" route="left" depart="111" />
    <vehicle id="19" type="typeNS" route="down" depart="111" color="1,0,0"/>
    <vehicle id="20" type="typeWE" route="right" depart="112" />
    <vehicle id="21" type="typeNS" route="down" depart="112" color="1,0,0"/>
    <vehicle id="22" type="typeWE" route="left" depart="121" />
    <vehicle id="23" type="typeWE" route="left" depart="127" />
    <vehicle id="24" type="typeWE" route="left" depart="129" />
    <vehicle id="25" type="typeWE" route="right" depart="135" />
    <vehicle id="26" type="typeNS" route="down" depart="135" color="1,0,0"/>
    <vehicle id="27" type="typeWE" route="left" depart="138" />
    <vehicle id="28" type="typeNS" route="down" depart="142" color="1,0,0"/>
    <vehicle id="29" type="typeWE" route="right" depart="145" />
    <vehicle id="30" type="typeWE" route="right" depart="147" />
    <vehicle id="31" type="typeWE" route="right" depart="148" />
    <vehicle id="32" type="typeNS" route="down" depart="151" color="1,0,0"/>
    <vehicle id="33" type="typeWE" route="right" depart="156" />
    <vehicle id="34" type="typeWE" route="left" depart="156" />
    <vehicle id="35" type="typeWE" route="right" depart="159" />
    <vehicle id="36" type="typeWE" route="left" depart="161" />
    <vehicle id="37" type="typeWE" route="left" depart="174" />
    <vehicle id="38" type="typeWE" route="right" depart="177" />
    <vehicle id="39" type="typeWE" route="right" depart="179" />
    <vehicle id="40" type="typeNS" route="down" depart="181" color="1,0,0"/>
    <vehicle id="41" type="typeWE" route="right" depart="184" />
    <vehicle id="42" type="typeWE" route="right" depart="185" />
    <vehicle id="43" type="typeWE" route="right" depart="193" />
    <vehicle id="44" type="typeWE" route="left" depart="194" />
    <vehicle id="45" type="typeWE" route="right" depart="208" />
    <vehicle id="46" type="typeNS" route="down" depart="208" color="1,0,0"/>
    <vehicle id="47" type="typeWE" route="right" depart="211" />
    <vehicle id="48" type="typeWE" route="right" depart="213" />
    <vehicle id="49" type="typeWE" route="right" depart="216" />
    <vehicle id="50" type="typeWE" route="right" depart="224" />
    <vehicle id="51" type="typeWE" route="right" depart="232" />
    <vehicle id="52" type="typeWE" route="right" depart="233" />
    <vehicle id="53" type="typeWE" route="right" depart="235" />
    <vehicle id="54" type="typeWE" route="left" depart="247" />
    <vehicle id="55" type="typeWE" route="right" depart="253" />
    <vehicle id="56" type="typeWE" route="left" depart="260" />
    <vehicle id="57" type="typeWE" route="right" depart="262" />
    <vehicle id="58" type="typeWE" route="right" depart="270" />
    <vehicle id="59" type="typeWE" route="right" depart="271" />
    <vehicle id="60" type="typeWE" route="left" depart="278" />
    <vehicle id="61" type="typeWE" route="right" depart="279" />
    <vehicle id="62" type="typeNS" route="down" depart="281" color="1,0,0"/>
    <vehicle id="63" type="typeWE" route="left" depart="285" />
    <vehicle id="64" type="typeWE" route="left" depart="293" />
    <vehicle id="65" type="typeWE" route="left" depart="306" />
    <vehicle id="66" type="typeWE" route="left" depart="307" />
    <vehicle id="67" type="typeWE" route="left" depart="317" />
    <vehicle id="68" type="typeWE" route="right" depart="318" />
    <vehicle id="69" type="typeWE" route="right" depart="322" />
    <vehicle id="70" type="typeWE" route="right" depart="323" />
    <vehicle id="71" type="typeWE" route="left" depart="330" />
    <vehicle id="72" type="typeWE" route="right" depart="336" />
    <vehicle id="73" type="typeWE" route="right" depart="337" />
    <vehicle id="74" type="typeNS" route="down" depart="340" color="1,0,0"/>
    <vehicle id="75" type="typeWE" route="right" depart="347" />
    <vehicle id="76" type="typeWE" route="right" depart="349" />
    <vehicle id="77" type="typeWE" route="right" depart="351" />
    <vehicle id="78" type="typeWE" route="right" depart="366" />
    <vehicle id="79" type="typeNS" route="down" depart="368" color="1,0,0"/>
    <vehicle id="80" type="typeWE" route="right" depart="383" />
    <vehicle id="81" type="typeWE" route="right" depart="387" />
    <vehicle id="82" type="typeWE" route="left" depart="389" />
    <vehicle id="83" type="typeWE" route="right" depart="390" />
    <vehicle id="84" type="typeWE" route="left" depart="395" />
    <vehicle id="85" type="typeWE" route="left" depart="397" />
    <vehicle id="86" type="typeWE" route="left" depart="398" />
    <vehicle id="87" type="typeNS" route="down" depart="407" color="1,0,0"/>
    <vehicle id="88" type="typeWE" route="right" depart="408" />
    <vehicle id="89" type="typeWE" route="right" depart="411" />
    <vehicle id="90" type="typeWE" route="right" depart="412" />
    <vehicle id="91" type="typeWE" route="left" depart="415" />
    <vehicle id="92" type="typeWE" route="right" depart="416" />
    <vehicle id="93" type="typeWE" route="left" depart="417" />
    <vehicle id="94" type="typeWE" route="left" depart="421" />
    <vehicle id="95" type="typeWE" route="left" depart="428" />
    <vehicle id="96" type="typeWE" route="right" depart="443" />
    <vehicle id="97" type="typeWE" route="left" depart="447" />
    <vehicle id="98" type="typeWE" route="left" depart="452" />
    <vehicle id="99" type="typeWE" route="left" depart="456" />
    <vehicle id="100" type="typeWE" route="left" depart="460" />
    <vehicle id="101" type="typeWE" route="right" depart="469" />
    <vehicle id="102" type="typeWE" route="right" depart="474" />
    <vehicle id="103" type="typeWE" route="right" depart="483" />
    <vehicle id="104" type="typeWE" route="left" depart="488" />
    <vehicle id="105" type="typeNS" route="down" depart="489" color="1,0,0"/>
    <vehicle id="106" type="typeWE" route="left" depart="491" />
    <vehicle id="107" type="typeNS" route="down" depart="492" color="1,0,0"/>
    <vehicle id="108" type="typeWE" route="right" depart="505" />
    <vehicle id="109" type="typeWE" route="left" depart="523" />
    <vehicle id="110" type="typeWE" route="left" depart="527" />
    <vehicle id="111" type="typeNS" route="down" depart="528" color="1,0,0"/>
    <vehicle id="112" type="typeWE" route="right" depart="535" />
    <vehicle id="113" type="typeWE" route="right" depart="536" />
    <vehicle id="114" type="typeWE" route="right" depart="537" />
    <vehicle id="115" type="typeWE" route="left" depart="542" />
    <vehicle id="116" type="typeWE" route="right" depart="555" />
    <vehicle id="117" type="typeWE" route="left" depart="555" />
    <vehicle id="118" type="typeWE" route="left" depart="558" />
    <vehicle id="119" type="typeWE" route="right" depart="560" />
    <vehicle id="120" type="typeWE" route="left" depart="560" />
    <vehicle id="121" type="typeWE" route="left" depart="565" />
    <vehicle id="122" type="typeWE" route="right" depart="574" />
    <vehicle id="123" type="typeWE" route="right" depart="584" />
    <vehicle id="124" type="typeWE" route="right" depart="598" />
    <vehicle id="125" type="typeNS" route="down" depart="601" color="1,0,0"/>
    <vehicle id="126" type="typeWE" route="right" depart="614" />
    <vehicle id="127" type="typeWE" route="left" depart="615" />
    <vehicle id="128" type="typeNS" route="down" depart="620" color="1,0,0"/>
    <vehicle id="129" type="typeWE" route="left" depart="624" />
    <vehicle id="130" type="typeWE" route="right" depart="626" />
    <vehicle id="131" type="typeWE" route="left" depart="627" />
    <vehicle id="132" type="typeWE" route="right" depart="629" />
    <vehicle id="133" type="typeWE" route="right" depart="630" />
    <vehicle id="134" type="typeWE" route="right" depart="632" />
    <vehicle id="135" type="typeNS" route="down" depart="640" color="1,0,0"/>
    <vehicle id="136" type="typeWE" route="right" depart="641" />
    <vehicle id="137" type="typeNS" route="down" depart="641" color="1,0,0"/>
    <vehicle id="138" type="typeWE" route="right" depart="644" />
    <vehicle id="139" type="typeWE" route="right" depart="648" />
    <vehicle id="140" type="typeWE" route="right" depart="666" />
    <vehicle id="141" type="typeNS" route="down" depart="670" color="1,0,0"/>
    <vehicle id="142" type="typeWE" route="left" depart="671" />
    <vehicle id="143" type="typeWE" route="right" depart="680" />
    <vehicle id="144" type="typeWE" route="left" depart="684" />
    <vehicle id="145" type="typeWE" route="left" depart="686" />
    <vehicle id="146" type="typeWE" route="left" depart="688" />
    <vehicle id="147" type="typeWE" route="right" depart="692" />
    <vehicle id="148" type="typeWE" route="right" depart="706" />
    <vehicle id="149" type="typeWE" route="left" depart="710" />
    <vehicle id="150" type="typeWE" route="right" depart="723" />
    <vehicle id="151" type="typeWE" route="right" depart="732" />
    <vehicle id="152" type="typeWE" route="left" depart="734" />
    <vehicle id="153" type="typeWE" route="right" depart="735" />
    <vehicle id="154" type="typeNS" route="down" depart="735" color="1,0,0"/>
    <vehicle id="155" type="typeNS" route="down" depart="740" color="1,0,0"/>
    <vehicle id="156" type="typeWE" route="right" depart="742" />
    <vehicle id="157" type="typeWE" route="left" depart="744" />
    <vehicle id="158" type="typeWE" route="left" depart="751" />
    <vehicle id="159" type="typeWE" route="right" depart="757" />
    <vehicle id="160" type="typeWE" route="left" depart="762" />
    <vehicle id="161" type="typeWE" route="right" depart="764" />
    <vehicle id="162" type="typeWE" route="right" depart="768" />
    <vehicle id="163" type="typeWE" route="right" depart="773" />
    <vehicle id="164" type="typeWE" route="left" depart="774" />
    <vehicle id="165" type="typeWE" route="left" depart="777" />
    <vehicle id="166" type="typeWE" route="right" depart="779" />
    <vehicle id="167" type="typeWE" route="right" depart="781" />
    <vehicle id="168" type="typeNS" route="down" depart="795" color="1,0,0"/>
    <vehicle id="169" type="typeNS" route="down" depart="797" color="1,0,0"/>
    <vehicle id="170" type="typeWE" route="left" depart="808" />
    <vehicle id="171" type="typeWE" route="left" depart="809" />
    <vehicle id="172" type="typeWE" route="left" depart="814" />
    <vehicle id="173" type="typeWE" route="right" depart="816" />
    <vehicle id="174" type="typeWE" route="left" depart="818" />
    <vehicle id="175" type="typeWE" route="left" depart="826" />
    <vehicle id="176" type="typeWE" route="right" depart="828" />
    <vehicle id="177" type="typeWE" route="right" depart="833" />
    <vehicle id="178" type="typeNS" route="down" depart="838" color="1,0,0"/>
    <vehicle id="179" type="typeWE" route="right" depart="847" />
    <vehicle id="180" type="typeWE" route="right" depart="850" />
    <vehicle id="181" type="typeWE" route="right" depart="854" />
    <vehicle id="182" type="typeWE" route="left" depart="856" />
    <vehicle id="183" type="typeWE" route="right" depart="858" />
    <vehicle id="184" type="typeWE" route="left" depart="866" />
    <vehicle id="185" type="typeWE" route="right" depart="868" />
    <vehicle id="186" type="typeWE" route="left" depart="877" />
    <vehicle id="187" type="typeWE" route="right" depart="878" />
    <vehicle id="188" type="typeWE" route="right" depart="881" />
    <vehicle id="189" type="typeWE" route="right" depart="882" />
    <vehicle id="190" type="typeNS" route="down" depart="889" color="1,0,0"/>
    <vehicle id="191" type="typeWE" route="right" depart="890" />
    <vehicle id="192" type="typeWE" route="right" depart="891" />
    <vehicle id="193" type="typeWE" route="right" depart="892" />
    <vehicle id="194" type="typeWE" route="left" depart="892" />
    <vehicle id="195" type="typeWE" route="right" depart="907" />
    <vehicle id="196" type="typeWE" route="left" depart="910" />
    <vehicle id="197" type="typeNS" route="down" depart="916" color="1,0,0"/>
    <vehicle id="198" type="typeWE" route="left" depart="918" />
    <vehicle id="199" type="typeWE" route="right" depart="923" />
    <vehicle id="200" type="typeWE" route="right" depart="925" />
    <vehicle id="201" type="typeNS" route="down" depart="927" color="1,0,0"/>
    <vehicle id="202" type="typeNS" route="down" depart="934" color="1,0,0"/>
    <vehicle id="203" type="typeWE" route="right" depart="936" />
    <vehicle id="204" type="typeWE" route="right" depart="938" />
    <vehicle id="205" type="typeNS" route="down" depart="939" color="1,0,0"/>
    <vehicle id="206" type="typeWE" route="left" depart="941" />
    <vehicle id="207" type="typeWE" route="right" depart="943" />
    <vehicle id="208" type="typeWE" route="left" depart="945" />
    <vehicle id="209" type="typeWE" route="left" depart="946" />
    <vehicle id="210" type="typeNS" route="down" depart="948" color="1,0,0"/>
    <vehicle id="211" type="typeWE" route="left" depart="949" />
    <vehicle id="212" type="typeWE" route="left" depart="952" />
    <vehicle id="213" type="typeWE" route="right" depart="960" />
    <vehicle id="214" type="typeWE" route="left" depart="964" />
    <vehicle id="215" type="typeWE" route="right" depart="969" />
    <vehicle id="216" type="typeWE" route="left" depart="974" />
    <vehicle id="217" type="typeWE" route="left" depart="979" />
    <vehicle id="218" type="typeWE" route="right" depart="988" />
    <vehicle id="219" type="typeWE" route="left" depart="989" />
    <vehicle id="220" type="typeWE" route="left" depart="996" />
    <vehicle id="221" type="typeWE" route="left" depart="998" />
    <vehicle id="222" type="typeWE" route="left" depart="999" />
    <vehicle id="223" type="typeNS" route="down" depart="999" color="1,0,0"/>
    <vehicle id="224" type="typeWE" route="left" depart="1006" />
    <vehicle id="225" type="typeWE" route="right" depart="1009" />
    <vehicle id="226" type="typeWE" route="left" depart="1012" />
    <vehicle id="227" type="typeWE" route="right" depart="1033" />
    <vehicle id="228" type="typeWE" route="left" depart="1033" />
    <vehicle id="229" type="typeWE" route="right" depart="1036" />
    <vehicle id="230" type="typeNS" route="down" depart="1037" color="1,0,0"/>
    <vehicle id="231" type="typeWE" route="right" depart="1039" />
    <vehicle id="232" type="typeWE" route="left" depart="1046" />
    <vehicle id="233" type="typeWE" route="left" depart="1067" />
    <vehicle id="234" type="typeWE" route="right" depart="1091" />
    <vehicle id="235" type="typeWE" route="right" depart="1099" />
    <vehicle id="236" type="typeWE" route="right" depart="1103" />
    <vehicle id="237" type="typeWE" route="right" depart="1104" />
    <vehicle id="238" type="typeWE" route="right" depart="1108" />
    <vehicle id="239" type="typeWE" route="left" depart="1113" />
    <vehicle id="240" type="typeWE" route="left" depart="1114" />
    <vehicle id="241" type="typeWE" route="right" depart="1117" />
    <vehicle id="242" type="typeWE" route="left" depart="1117" />
    <vehicle id="243" type="typeNS" route="down" depart="1120" color="1,0,0"/>
    <vehicle id="244" type="typeWE" route="right" depart="1122" />
    <vehicle id="245" type="typeWE" route="left" depart="1124" />
    <vehicle id="246" type="typeWE" route="right" depart="1145" />
    <vehicle id="247" type="typeWE" route="left" depart="1150" />
    <vehicle id="248" type="typeWE" route="left" depart="1151" />
    <vehicle id="249" type="typeWE" route="right" depart="1153" />
    <vehicle id="250" type="typeWE" route="right" depart="1160" />
    <vehicle id="251" type="typeWE" route="left" depart="1160" />
    <vehicle id="252" type="typeWE" route="right" depart="1167" />
    <vehicle id="253" type="typeNS" route="down" depart="1168" color="1,0,0"/>
    <vehicle id="254" type="typeWE" route="left" depart="1170" />
    <vehicle id="255" type="typeWE" route="left" depart="1174" />
    <vehicle id="256" type="typeWE" route="left" depart="1175" />
    <vehicle id="257" type="typeWE" route="right" depart="1183" />
    <vehicle id="258" type="typeWE" route="right" depart="1190" />
    <vehicle id="259" type="typeWE" route="left" depart="1190" />
    <vehicle id="260" type="typeNS" route="down" depart="1190" color="1,0,0"/>
    <vehicle id="261" type="typeWE" route="right" depart="1192" />
    <vehicle id="262" type="typeWE" route="right" depart="1194" />
    <vehicle id="263" type="typeWE" route="right" depart="1197" />
    <vehicle id="264" type="typeWE" route="left" depart="1200" />
    <vehicle id="265" type="typeWE" route="right" depart="1202" />
    <vehicle id="266" type="typeWE" route="right" depart="1208" />
    <vehicle id="267" type="typeWE" route="right" depart="1209" />
    <vehicle id="268" type="typeNS" route="down" depart="1212" color="1,0,0"/>
    <vehicle id="269" type="typeWE" route="left" depart="1214" />
    <vehicle id="270" type="typeWE" route="right" depart="1218" />
    <vehicle id="271" type="typeWE" route="left" depart="1225" />
    <vehicle id="272" type="typeNS" route="down" depart="1232" color="1,0,0"/>
    <vehicle id="273" type="typeWE" route="left" depart="1239" />
    <vehicle id="274" type="typeWE" route="left" depart="1242" />
    <vehicle id="275" type="typeNS" route="down" depart="1244" color="1,0,0"/>
    <vehicle id="276" type="typeWE" route="left" depart="1249" />
    <vehicle id="277" type="typeWE" route="left" depart="1250" />
    <vehicle id="278" type="typeWE" route="left" depart="1261" />
    <vehicle id="279" type="typeWE" route="left" depart="1262" />
    <vehicle id="280" type="typeWE" route="left" depart="1267" />
    <vehicle id="281" type="typeWE" route="left" depart="1273" />
    <vehicle id="282" type="typeWE" route="left" depart="1280" />
    <vehicle id="283" type="typeWE" route="right" depart="1282" />
    <vehicle id="284" type="typeWE" route="left" depart="1282" />
    <vehicle id="285" type="typeWE" route="right" depart="1288" />
    <vehicle id="286" type="typeWE" route="left" depart="1289" />
    <vehicle id="287" type="typeWE" route="left" depart="1292" />
    <vehicle id="288" type="typeWE" route="right" depart="1301" />
    <vehicle id="289" type="typeWE" route="left" depart="1303" />
    <vehicle id="290" type="typeNS" route="down" depart="1308" color="1,0,0"/>
    <vehicle id="291" type="typeWE" route="right" depart="1316" />
    <vehicle id="292" type="typeWE" route="left" depart="1316" />
    <vehicle id="293" type="typeNS" route="down" depart="1323" color="1,0,0"/>
    <vehicle id="294" type="typeWE" route="right" depart="1332" />
    <vehicle id="295" type="typeWE" route="right" depart="1337" />
    <vehicle id="296" type="typeWE" route="left" depart="1338" />
    <vehicle id="297" type="typeWE" route="right" depart="1346" />
    <vehicle id="298" type="typeWE" route="left" depart="1354" />
    <vehicle id="299" type="typeWE" route="right" depart="1356" />
    <vehicle id="300" type="typeWE" route="right" depart="1359" />
    <vehicle id="301" type="typeNS" route="down" depart="1359" color="1,0,0"/>
    <vehicle id="302" type="typeWE" route="left" depart="1363" />
    <vehicle id="303" type="typeWE" route="left" depart="1368" />
    <vehicle id="304" type="typeWE" route="right" depart="1375" />
    <vehicle id="305" type="typeWE" route="right" depart="1386" />
    <vehicle id="306" type="typeWE" route="left" depart="1391" />
    <vehicle id="307" type="typeWE" route="right" depart="1400" />
    <vehicle id="308" type="typeWE" route="left" depart="1403" />
    <vehicle id="309" type="typeWE" route="right" depart="1404" />
    <vehicle id="310" type="typeWE" route="right" depart="1405" />
    <vehicle id="311" type="typeWE" route="left" depart="1413" />
    <vehicle id="312" type="typeWE" route="left" depart="1416" />
    <vehicle id="313" type="typeWE" route="right" depart="1429" />
    <vehicle id="314" type="typeWE" route="left" depart="1430" />
    <vehicle id="315" type="typeWE" route="left" depart="1431" />
    <vehicle id="316" type="typeNS" route="down" depart="1434" color="1,0,0"/>
    <vehicle id="317" type="typeWE" route="right" depart="1435" />
    <vehicle id="318" type="typeNS" route="down" depart="1435" color="1,0,0"/>
    <vehicle id="319" type="typeWE" route="right" depart="1453" />
    <vehicle id="320" type="typeWE" route="right" depart="1466" />
    <vehicle id="321" type="typeNS" route="down" depart="1468" color="1,0,0"/>
    <vehicle id="322" type="typeWE" route="right" depart="1472" />
    <vehicle id="323" type="typeWE" route="right" depart="1480" />
    <vehicle id="324" type="typeWE" route="right" depart="1481" />
    <vehicle id="325" type="typeWE" route="left" depart="1481" />
    <vehicle id="326" type="typeNS" route="down" depart="1481" color="1,0,0"/>
    <vehicle id="327" type="typeWE" route="left" depart="1490" />
    <vehicle id="328" type="typeWE" route="right" depart="1491" />
    <vehicle id="329" type="typeWE" route="right" depart="1492" />
    <vehicle id="330" type="typeWE" route="right" depart="1494" />
    <vehicle id="331" type="typeWE" route="left" depart="1502" />
    <vehicle id="332" type="typeWE" route="right" depart="1506" />
    <vehicle id="333" type="typeWE" route="right" depart="1507" />
    <vehicle id="334" type="typeWE" route="right" depart="1512" />
    <vehicle id="335" type="typeWE" route="left" depart="1518" />
    <vehicle id="336" type="typeWE" route="right" depart="1521" />
    <vehicle id="337" type="typeWE" route="right" depart="1522" />
    <vehicle id="338" type="typeWE" route="right" depart="1523" />
    <vehicle id="339" type="typeWE" route="right" depart="1535" />
    <vehicle id="340" type="typeWE" route="right" depart="1536" />
    <vehicle id="341" type="typeWE" route="left" depart="1541" />
    <vehicle id="342" type="typeWE" route="right" depart="1546" />
    <vehicle id="343" type="typeWE" route="right" depart="1552" />
    <vehicle id="344" type="typeWE" route="left" depart="1552" />
    <vehicle id="345" type="typeWE" route="left" depart="1555" />
    <vehicle id="346" type="typeNS" route="down" depart="1555" color="1,0,0"/>
    <vehicle id="347" type="typeWE" route="right" depart="1556" />
    <vehicle id="348" type="typeWE" route="right" depart="1559" />
    <vehicle id="349" type="typeWE" route="right" depart="1560" />
    <vehicle id="350" type="typeNS" route="down" depart="1560" color="1,0,0"/>
    <vehicle id="351" type="typeWE" route="right" depart="1563" />
    <vehicle id="352" type="typeWE" route="right" depart="1576" />
    <vehicle id="353" type="typeWE" route="left" depart="1582" />
    <vehicle id="354" type="typeWE" route="left" depart="1583" />
    <vehicle id="355" type="typeNS" route="down" depart="1593" color="1,0,0"/>
    <vehicle id="356" type="typeWE" route="left" depart="1601" />
    <vehicle id="357" type="typeWE" route="right" depart="1603" />
    <vehicle id="358" type="typeWE" route="left" depart="1604" />
    <vehicle id="359" type="typeWE" route="right" depart="1608" />
    <vehicle id="360" type="typeWE" route="left" depart="1619" />
    <vehicle id="361" type="typeWE" route="right" depart="1621" />
    <vehicle id="362" type="typeWE" route="left" depart="1624" />
    <vehicle id="363" type="typeWE" route="right" depart="1627" />
    <vehicle id="364" type="typeWE" route="right" depart="1638" />
    <vehicle id="365" type="typeWE" route="right" depart="1642" />
    <vehicle id="366" type="typeWE" route="left" depart="1644" />
    <vehicle id="367" type="typeWE" route="right" depart="1648" />
    <vehicle id="368" type="typeWE" route="left" depart="1655" />
    <vehicle id="369" type="typeWE" route="right" depart="1659" />
    <vehicle id="370" type="typeWE" route="right" depart="1660" />
    <vehicle id="371" type="typeWE" route="right" depart="1662" />
    <vehicle id="372" type="typeWE" route="left" depart="1664" />
    <vehicle id="373" type="typeWE" route="left" depart="1673" />
    <vehicle id="374" type="typeWE" route="left" depart="1678" />
    <vehicle id="375" type="typeWE" route="left" depart="1681" />
    <vehicle id="376" type="typeWE" route="left" depart="1691" />
    <vehicle id="377" type="typeWE" route="right" depart="1702" />
    <vehicle id="378" type="typeWE" route="left" depart="1702" />
    <vehicle id="379" type="typeWE" route="right" depart="1712" />
    <vehicle id="380" type="typeWE" route="right" depart="1714" />
    <vehicle id="381" type="typeWE" route="left" depart="1714" />
    <vehicle id="382" type="typeWE" route="left" depart="1724" />
    <vehicle id="383" type="typeNS" route="down" depart="1729" color="1,0,0"/>
    <vehicle id="384" type="typeWE" route="left" depart="1732" />
    <vehicle id="385" type="typeWE" route="left" depart="1738" />
    <vehicle id="386" type="typeWE" route="right" depart="1739" />
    <vehicle id="387" type="typeNS" route="down" depart="1742" color="1,0,0"/>
    <vehicle id="388" type="typeWE" route="left" depart="1745" />
    <vehicle id="389" type="typeNS" route="down" depart="1750" color="1,0,0"/>
    <vehicle id="390" type="typeWE" route="right" depart="1755" />
    <vehicle id="391" type="typeNS" route="down" depart="1759" color="1,0,0"/>
    <vehicle id="392" type="typeWE" route="right" depart="1763" />
    <vehicle id="393" type="typeNS" route="down" depart="1769" color="1,0,0"/>
    <vehicle id="394" type="typeWE" route="right" depart="1770" />
    <vehicle id="395" type="typeWE" route="right" depart="1771" />
    <vehicle id="396" type="typeWE" route="right" depart="1775" />
    <vehicle id="397" type="typeWE" route="left" depart="1775" />
    <vehicle id="398" type="typeWE" route="right" depart="1783" />
    <vehicle id="399" type="typeNS" route="down" depart="1789" color="1,0,0"/>
    <vehicle id="400" type="typeWE" route="left" depart="1799" />
    <vehicle id="401" type="typeWE" route="left" depart="1810" />
    <vehicle id="402" type="typeWE" route="right" depart="1812" />
    <vehicle id="403" type="typeNS" route="down" depart="1812" color="1,0,0"/>
    <vehicle id="404" type="typeWE" route="right" depart="1813" />
    <vehicle id="405" type="typeNS" route="down" depart="1815" color="1,0,0"/>
    <vehicle id="406" type="typeNS" route="down" depart="1817" color="1,0,0"/>
    <vehicle id="407" type="typeWE" route="right" depart="1818" />
    <vehicle id="408" type="typeWE" route="right" depart="1819" />
    <vehicle id="409" type="typeWE" route="left" depart="1829" />
    <vehicle id="410" type="typeWE" route="left" depart="1839" />
    <vehicle id="411" type="typeWE" route="left" depart="1852" />
    <vehicle id="412" type="typeWE" route="left" depart="1854" />
    <vehicle id="413" type="typeWE" route="right" depart="1857" />
    <vehicle id="414" type="typeWE" route="left" depart="1858" />
    <vehicle id="415" type="typeWE" route="right" depart="1860" />
    <vehicle id="416" type="typeWE" route="right" depart="1863" />
    <vehicle id="417" type="typeWE" route="right" depart="1872" />
    <vehicle id="418" type="typeWE" route="left" depart="1877" />
    <vehicle id="419" type="typeWE" route="right" depart="1884" />
    <vehicle id="420" type="typeWE" route="right" depart="1900" />
    <vehicle id="421" type="typeWE" route="left" depart="1911" />
    <vehicle id="422" type="typeWE" route="left" depart="1915" />
    <vehicle id="423" type="typeWE" route="left" depart="1917" />
    <vehicle id="424" type="typeWE" route="right" depart="1921" />
    <vehicle id="425" type="typeWE" route="left" depart="1926" />
    <vehicle id="426" type="typeWE" route="right" depart="1930" />
    <vehicle id="427" type="typeWE" route="left" depart="1931" />
    <vehicle id="428" type="typeWE" route="right" depart="1932" />
    <vehicle id="429" type="typeWE" route="right" depart="1940" />
    <vehicle id="430" type="typeWE" route="right" depart="1954" />
    <vehicle id="431" type="typeWE" route="right" depart="1955" />
    <vehicle id="432" type="typeWE" route="left" depart="1956" />
    <vehicle id="433" type="typeWE" route="left" depart="1958" />
    <vehicle id="434" type="typeNS" route="down" depart="1961" color="1,0,0"/>
    <vehicle id="435" type="typeNS" route="down" depart="1969" color="1,0,0"/>
    <vehicle id="436" type="typeWE" route="right" depart="1977" />
    <vehicle id="437" type="typeWE" route="left" depart="1991" />